/*--------------------------------*- C++ -*----------------------------------*\
| =========                 |                                                 |
| \\      /  F ield         | OpenFOAM: The Open Source CFD Toolbox           |
|  \\    /   O peration     | Version:  2.4.0                                 |
|   \\  /    A nd           | Web:      www.OpenFOAM.org                      |
|    \\/     M anipulation  |                                                 |
\*---------------------------------------------------------------------------*/
FoamFile
{
    version     2.0;
    format      ascii;
    class       dictionary;
    location    "system";
    object      fvOptions;
}
// * * * * * * * * * * * * * * * * * * * * * * * * * * * * * * * * * * * * * //



porosity1
{
    type            explicitPorositySource;
    //active          yes;
    active          no;
    selectionMode   cellZone;
    cellZone        porousBlock;

    explicitPorositySourceCoeffs
    {
        type            DarcyForchheimer;

        DarcyForchheimerCoeffs
        {
            d   d [0 -2 0 0 0 0 0] (7.0e7 7.0e7 5.0e8);
            f   f [0 -1 0 0 0 0 0] (0 0 0);

            coordinateSystem
            {
                type    cartesian;
                origin  (0 0 0);
                coordinateRotation
                {
                    type    axesRotation;
                    e1  (1 0 0);
                    e2  (0 1 0);
                }
            }
        }
    }
}

//************************************************************************* //
