/*--------------------------------*- C++ -*----------------------------------*\
| =========                 |                                                 |
| \\      /  F ield         | OpenFOAM: The Open Source CFD Toolbox           |
|  \\    /   O peration     | Version:  2.4.0                                 |
|   \\  /    A nd           | Web:      www.OpenFOAM.org                      |
|    \\/     M anipulation  |                                                 |
\*---------------------------------------------------------------------------*/
FoamFile
{
    version     2.0;
    format      ascii;
    class       volScalarField;
    object      p;
}
// * * * * * * * * * * * * * * * * * * * * * * * * * * * * * * * * * * * * * //

dimensions      [0 2 -2 0 0 0 0];

internalField   uniform 0;

boundaryField
{
    innerCylinder
    {
        type zeroGradient;
    }
    outerCylinder
    {
        type zeroGradient;
    }
    
    left
    {
        type cyclic;
    }
    down
    {
        type cyclic;
    }
    
    front
    {
        type cyclic;
    }
    back
    {
        type cyclic;
    }
    /*
    walls
    {
        type            fixedFluxPressure;
        phi             phi.air;
        value           $internalField;
    }

    bottom
    {
        type            fixedFluxPressure;
        phi             phi.air;
        value           $internalField;
    }

    top
    {
        type            fixedValue;
        phi             phi.air;
        value           $internalField;
    }

    frontAndBack
    {
        type            symmetry;
    }
    */
}

// ************************************************************************* //
